Version 4
SHEET 1 880 680
WIRE 112 80 16 80
WIRE 208 80 176 80
WIRE 384 80 272 80
WIRE 16 128 16 80
WIRE 272 128 272 80
WIRE 384 128 384 80
WIRE 16 224 16 208
WIRE 272 224 272 192
WIRE 272 224 16 224
WIRE 384 224 384 208
WIRE 384 224 272 224
WIRE 16 240 16 224
FLAG 16 240 0
FLAG 16 80 V_in
FLAG 384 80 V_out
SYMBOL voltage 16 112 R0
WINDOW 123 0 0 Left 0
WINDOW 39 0 0 Left 0
SYMATTR InstName V1
SYMATTR Value 5
SYMBOL cap 176 64 R90
WINDOW 0 0 32 VBottom 2
WINDOW 3 32 32 VTop 2
SYMATTR InstName C36
SYMATTR Value 10µ
SYMBOL cap 256 128 R0
SYMATTR InstName C37
SYMATTR Value 68n
SYMBOL res 368 112 R0
SYMATTR InstName R31
SYMATTR Value 100k
SYMBOL diode 208 96 R270
WINDOW 0 32 32 VTop 2
WINDOW 3 0 32 VBottom 2
SYMATTR InstName D30
SYMATTR Value BAV70HM
TEXT -18 264 Left 2 !.tran 0 10m 0
